Version 4
SHEET 1 3052 1220
WIRE 1456 -96 -496 -96
WIRE 1296 32 432 32
WIRE 224 128 128 128
WIRE 432 128 432 32
WIRE 432 128 224 128
WIRE 512 128 432 128
WIRE 800 128 576 128
WIRE 224 160 224 128
WIRE 1520 176 1408 176
WIRE -304 208 -384 208
WIRE -240 208 -304 208
WIRE -112 208 -160 208
WIRE 128 208 128 128
WIRE 128 208 48 208
WIRE -304 224 -304 208
WIRE -112 224 -112 208
WIRE -80 224 -112 224
WIRE 1456 224 1456 -96
WIRE 128 240 128 208
WIRE 128 240 48 240
WIRE 1408 240 1408 176
WIRE 1424 240 1408 240
WIRE 1520 256 1520 176
WIRE 1520 256 1488 256
WIRE 1616 256 1520 256
WIRE 224 272 224 240
WIRE 224 272 48 272
WIRE 352 272 224 272
WIRE 512 272 416 272
WIRE 672 272 592 272
WIRE 1424 272 672 272
WIRE 1616 272 1616 256
WIRE -80 288 -112 288
WIRE -304 304 -384 304
WIRE -224 304 -304 304
WIRE -112 304 -112 288
WIRE -112 304 -224 304
WIRE 128 304 48 304
WIRE 672 304 672 272
WIRE -224 352 -224 304
WIRE 128 384 128 304
WIRE 544 384 128 384
WIRE 672 384 672 368
WIRE 672 384 544 384
WIRE 736 384 672 384
WIRE 800 384 800 128
WIRE 800 384 736 384
WIRE 1616 384 800 384
WIRE 544 432 544 384
WIRE -528 560 -704 560
WIRE -496 560 -496 -96
WIRE -496 560 -528 560
WIRE -160 560 -496 560
WIRE 336 560 -160 560
WIRE 816 560 336 560
WIRE 896 560 816 560
WIRE 960 560 896 560
WIRE 1296 560 1296 32
WIRE 1296 560 1248 560
WIRE -160 624 -160 560
WIRE 816 640 816 560
WIRE -528 656 -528 560
WIRE 896 656 896 560
WIRE 960 656 896 656
WIRE 1296 656 1248 656
WIRE 400 720 288 720
WIRE -160 736 -160 704
WIRE 48 736 -160 736
WIRE -704 752 -704 560
WIRE 336 768 336 560
WIRE -160 784 -160 736
WIRE 288 784 288 720
WIRE 304 784 288 784
WIRE 400 800 400 720
WIRE 400 800 368 800
WIRE 480 800 400 800
WIRE 736 800 736 384
WIRE 736 800 560 800
WIRE 816 800 816 704
WIRE 816 800 736 800
WIRE 1104 800 1104 720
WIRE 1104 800 816 800
WIRE 48 816 48 736
WIRE 304 816 48 816
WIRE 48 880 48 816
WIRE -160 912 -160 848
WIRE -704 1040 -704 832
WIRE -528 1040 -528 720
WIRE -528 1040 -704 1040
WIRE -352 1040 -528 1040
WIRE -160 1040 -160 976
WIRE -160 1040 -352 1040
WIRE 48 1040 48 944
WIRE 48 1040 -160 1040
WIRE 336 1040 336 832
WIRE 336 1040 48 1040
WIRE 1456 1040 1456 288
WIRE 1456 1040 336 1040
WIRE -352 1088 -352 1040
FLAG -224 352 0
FLAG 544 432 0
FLAG -352 1088 0
FLAG -384 208 T2
IOPIN -384 208 In
FLAG 1616 256 A+
IOPIN 1616 256 Out
FLAG 1616 384 0
IOPIN 1616 384 Out
SYMBOL Digital/inv 352 208 R0
SYMATTR InstName A1
SYMBOL Opamps/LT1028 1456 192 R0
SYMATTR InstName U2
SYMBOL Opamps/LT1028 336 736 R0
SYMATTR InstName U3
SYMBOL res -144 192 R90
WINDOW 0 0 56 VBottom 2
WINDOW 3 32 56 VTop 2
SYMATTR InstName R1
SYMATTR Value 332
SYMBOL res -176 608 R0
SYMATTR InstName R2
SYMATTR Value 1.21k
SYMBOL res 208 144 R0
SYMATTR InstName R3
SYMATTR Value 4.02k
SYMBOL res 608 256 R90
WINDOW 0 0 56 VBottom 2
WINDOW 3 32 56 VTop 2
SYMATTR InstName R4
SYMATTR Value 71.5k
SYMBOL res 576 784 R90
WINDOW 0 0 56 VBottom 2
WINDOW 3 32 56 VTop 2
SYMATTR InstName R5
SYMATTR Value 10
SYMBOL cap 576 112 R90
WINDOW 0 0 32 VBottom 2
WINDOW 3 32 32 VTop 2
SYMATTR InstName C1
SYMATTR Value 10µ
SYMBOL cap 688 368 R180
WINDOW 0 24 56 Left 2
WINDOW 3 24 8 Left 2
SYMATTR InstName C2
SYMATTR Value 1µ
SYMBOL cap -544 656 R0
SYMATTR InstName C3
SYMATTR Value 1µ
SYMBOL cap 800 640 R0
SYMATTR InstName C4
SYMATTR Value 1
SYMBOL cap 64 944 R180
WINDOW 0 24 56 Left 2
WINDOW 3 24 8 Left 2
SYMATTR InstName C5
SYMATTR Value 0.1µ
SYMBOL diode -176 784 R0
SYMATTR InstName D1
SYMBOL diode -176 912 R0
SYMATTR InstName D2
SYMBOL voltage -704 736 R0
WINDOW 123 0 0 Left 2
WINDOW 39 0 0 Left 2
SYMATTR InstName V1
SYMATTR Value 9
SYMBOL voltage -304 208 R0
WINDOW 123 0 0 Left 2
WINDOW 39 0 0 Left 2
WINDOW 3 -404 112 Left 2
SYMATTR Value PWL file=C:\dev\fpga_dac\testData\pwl1.txt
SYMATTR InstName V2
SYMBOL PowerProducts\\LT1761-5 1104 608 R0
SYMATTR InstName U5
SYMBOL 6N137 -16 256 R0
SYMATTR InstName U4
TEXT -496 1112 Left 2 !.tran 2s startup uic
