Version 4
SHEET 1 1588 1216
WIRE 1584 32 432 32
WIRE 224 128 160 128
WIRE 432 128 432 32
WIRE 432 128 224 128
WIRE 544 128 432 128
WIRE 832 128 608 128
WIRE 224 160 224 128
WIRE 1168 176 864 176
WIRE -368 208 -368 128
WIRE -304 208 -368 208
WIRE -240 208 -304 208
WIRE -112 208 -160 208
WIRE 160 208 160 128
WIRE 160 208 80 208
WIRE -304 224 -304 208
WIRE 864 240 864 176
WIRE 960 240 864 240
WIRE 1168 256 1168 176
WIRE 1168 256 1024 256
WIRE 1328 256 1168 256
WIRE 224 272 224 240
WIRE 224 272 80 272
WIRE 400 272 224 272
WIRE 560 272 464 272
WIRE 752 272 640 272
WIRE 960 272 752 272
WIRE 1328 272 1328 256
WIRE -304 304 -496 304
WIRE -224 304 -304 304
WIRE -112 304 -224 304
WIRE 128 304 80 304
WIRE 752 304 752 272
WIRE -224 352 -224 304
WIRE 128 384 128 304
WIRE 432 384 432 128
WIRE 432 384 128 384
WIRE 592 384 432 384
WIRE 752 384 752 368
WIRE 752 384 592 384
WIRE 800 384 752 384
WIRE 832 384 832 128
WIRE 832 384 800 384
WIRE 1328 384 832 384
WIRE 592 432 592 384
WIRE -288 560 -368 560
WIRE -144 560 -288 560
WIRE 80 560 -144 560
WIRE 464 560 80 560
WIRE 992 560 464 560
WIRE 1088 560 992 560
WIRE 1184 560 1088 560
WIRE 1584 560 1584 32
WIRE 1584 560 1472 560
WIRE 80 624 80 560
WIRE 992 640 992 560
WIRE -144 656 -144 560
WIRE 1088 656 1088 560
WIRE 1184 656 1088 656
WIRE 1584 656 1472 656
WIRE 560 720 336 720
WIRE 80 736 80 704
WIRE 256 736 80 736
WIRE -288 752 -288 560
WIRE 464 768 464 560
WIRE 80 784 80 736
WIRE 336 784 336 720
WIRE 432 784 336 784
WIRE 560 800 560 720
WIRE 560 800 496 800
WIRE 656 800 560 800
WIRE 800 800 800 384
WIRE 800 800 736 800
WIRE 992 800 992 704
WIRE 992 800 800 800
WIRE 1328 800 1328 720
WIRE 1328 800 992 800
WIRE 256 816 256 736
WIRE 432 816 256 816
WIRE 256 880 256 816
WIRE 80 912 80 848
WIRE -288 1040 -288 832
WIRE -288 1040 -368 1040
WIRE -144 1040 -144 720
WIRE -144 1040 -288 1040
WIRE -48 1040 -144 1040
WIRE 80 1040 80 976
WIRE 80 1040 -48 1040
WIRE 256 1040 256 944
WIRE 256 1040 80 1040
WIRE 464 1040 464 832
WIRE 464 1040 256 1040
WIRE -48 1088 -48 1040
FLAG -224 352 0
FLAG 592 432 0
FLAG -48 1088 0
FLAG -368 128 T2
IOPIN -368 128 In
FLAG -368 560 T3
FLAG 1328 256 A+
IOPIN 1328 256 Out
FLAG 1328 384 0
IOPIN 1328 384 Out
SYMBOL Optos/4N25 -16 272 R0
SYMATTR InstName U1
SYMBOL Digital/inv 400 208 R0
SYMATTR InstName A1
SYMBOL Opamps/LT1028 992 192 R0
SYMATTR InstName U2
SYMBOL Opamps/LT1028 464 736 R0
SYMATTR InstName U3
SYMBOL PowerProducts/LT1761-2 1328 608 R0
SYMATTR InstName U4
SYMBOL res -144 192 R90
WINDOW 0 0 56 VBottom 2
WINDOW 3 32 56 VTop 2
SYMATTR InstName R1
SYMATTR Value 332
SYMBOL res 64 608 R0
SYMATTR InstName R2
SYMATTR Value 1.21k
SYMBOL res 208 144 R0
SYMATTR InstName R3
SYMATTR Value 4.02k
SYMBOL res 656 256 R90
WINDOW 0 0 56 VBottom 2
WINDOW 3 32 56 VTop 2
SYMATTR InstName R4
SYMATTR Value 71.5k
SYMBOL res 752 784 R90
WINDOW 0 0 56 VBottom 2
WINDOW 3 32 56 VTop 2
SYMATTR InstName R5
SYMATTR Value 10
SYMBOL cap 608 112 R90
WINDOW 0 0 32 VBottom 2
WINDOW 3 32 32 VTop 2
SYMATTR InstName C1
SYMATTR Value 10µ
SYMBOL cap 768 368 R180
WINDOW 0 24 56 Left 2
WINDOW 3 24 8 Left 2
SYMATTR InstName C2
SYMATTR Value 1µ
SYMBOL cap -160 656 R0
SYMATTR InstName C3
SYMATTR Value 1µ
SYMBOL cap 976 640 R0
SYMATTR InstName C4
SYMATTR Value 1
SYMBOL cap 272 944 R180
WINDOW 0 24 56 Left 2
WINDOW 3 24 8 Left 2
SYMATTR InstName C5
SYMATTR Value 0.1µ
SYMBOL diode 64 784 R0
SYMATTR InstName D1
SYMBOL diode 64 912 R0
SYMATTR InstName D2
SYMBOL voltage -288 736 R0
WINDOW 123 0 0 Left 2
WINDOW 39 0 0 Left 2
SYMATTR InstName V1
SYMATTR Value 9
SYMBOL voltage -304 208 R0
WINDOW 123 0 0 Left 2
WINDOW 39 0 0 Left 2
SYMATTR InstName V2
SYMATTR Value PWL file=C:\dev\fpga_dac\testData\pwl1.txt
TEXT -496 1112 Left 2 !.tran 500n startup
